# generated using pymatgen
data_Zr7Pt10
_symmetry_space_group_name_H-M   Cmce
_cell_length_a   13.26774400
_cell_length_b   9.70823200
_cell_length_c   9.74121100
_cell_angle_alpha   90.00000000
_cell_angle_beta   90.00000000
_cell_angle_gamma   90.00000000
_symmetry_Int_Tables_number   64
_chemical_formula_structural   Zr7Pt10
_chemical_formula_sum   'Zr28 Pt40'
_cell_volume   1254.72970557
_cell_formula_units_Z   4
loop_
 _symmetry_equiv_pos_site_id
 _symmetry_equiv_pos_as_xyz
  1  'x, y, z'
  2  '-x, -y, -z'
  3  '-x, -y+1/2, z+1/2'
  4  'x, y+1/2, -z+1/2'
  5  'x, -y, -z'
  6  '-x, y, z'
  7  '-x, y+1/2, -z+1/2'
  8  'x, -y+1/2, z+1/2'
  9  'x+1/2, y+1/2, z'
  10  '-x+1/2, -y+1/2, -z'
  11  '-x+1/2, -y, z+1/2'
  12  'x+1/2, y, -z+1/2'
  13  'x+1/2, -y+1/2, -z'
  14  '-x+1/2, y+1/2, z'
  15  '-x+1/2, y, -z+1/2'
  16  'x+1/2, -y, z+1/2'
loop_
 _atom_site_type_symbol
 _atom_site_label
 _atom_site_symmetry_multiplicity
 _atom_site_fract_x
 _atom_site_fract_y
 _atom_site_fract_z
 _atom_site_occupancy
  Zr  Zr0  8  0.00000000  0.18224600  0.68333800  1
  Zr  Zr1  8  0.19015700  0.50000000  0.00000000  1
  Zr  Zr2  8  0.25000000  0.24665800  0.75000000  1
  Zr  Zr3  4  0.00000000  0.00000000  0.00000000  1
  Pt  Pt4  16  0.14604450  0.20933650  0.00005900  1
  Pt  Pt5  16  0.14627400  0.00004700  0.20942800  1
  Pt  Pt6  8  0.00000000  0.10810600  0.39356000  1
