# generated using pymatgen
data_Zr9Pt11
_symmetry_space_group_name_H-M   I4/m
_cell_length_a   10.49477400
_cell_length_b   10.49477400
_cell_length_c   6.86006000
_cell_angle_alpha   90.00000000
_cell_angle_beta   90.00000000
_cell_angle_gamma   90.00000000
_symmetry_Int_Tables_number   87
_chemical_formula_structural   Zr9Pt11
_chemical_formula_sum   'Zr18 Pt22'
_cell_volume   755.56893821
_cell_formula_units_Z   2
loop_
 _symmetry_equiv_pos_site_id
 _symmetry_equiv_pos_as_xyz
  1  'x, y, z'
  2  '-x, -y, -z'
  3  '-y, x, z'
  4  'y, -x, -z'
  5  '-x, -y, z'
  6  'x, y, -z'
  7  'y, -x, z'
  8  '-y, x, -z'
  9  'x+1/2, y+1/2, z+1/2'
  10  '-x+1/2, -y+1/2, -z+1/2'
  11  '-y+1/2, x+1/2, z+1/2'
  12  'y+1/2, -x+1/2, -z+1/2'
  13  '-x+1/2, -y+1/2, z+1/2'
  14  'x+1/2, y+1/2, -z+1/2'
  15  'y+1/2, -x+1/2, z+1/2'
  16  '-y+1/2, x+1/2, -z+1/2'
loop_
 _atom_site_type_symbol
 _atom_site_label
 _atom_site_symmetry_multiplicity
 _atom_site_fract_x
 _atom_site_fract_y
 _atom_site_fract_z
 _atom_site_occupancy
  Zr  Zr0  8  0.08208650  0.25320750  0.50000000  1
  Zr  Zr1  8  0.09541600  0.30732200  0.00000000  1
  Zr  Zr2  2  0.00000000  0.00000000  0.00000000  1
  Pt  Pt3  16  0.11443050  0.77260450  0.20957350  1
  Pt  Pt4  4  0.00000000  0.50000000  0.25000000  1
  Pt  Pt5  2  0.00000000  0.00000000  0.50000000  1
