# generated using pymatgen
data_TiCu4
_symmetry_space_group_name_H-M   Pnma
_cell_length_a   4.49819700
_cell_length_b   4.33620500
_cell_length_c   13.03164300
_cell_angle_alpha   90.00000000
_cell_angle_beta   90.00000000
_cell_angle_gamma   90.00000000
_symmetry_Int_Tables_number   62
_chemical_formula_structural   TiCu4
_chemical_formula_sum   'Ti4 Cu16'
_cell_volume   254.18355621
_cell_formula_units_Z   4
loop_
 _symmetry_equiv_pos_site_id
 _symmetry_equiv_pos_as_xyz
  1  'x, y, z'
  2  '-x, -y, -z'
  3  '-x+1/2, -y, z+1/2'
  4  'x+1/2, y, -z+1/2'
  5  'x+1/2, -y+1/2, -z+1/2'
  6  '-x+1/2, y+1/2, z+1/2'
  7  '-x, y+1/2, -z'
  8  'x, -y+1/2, z'
loop_
 _atom_site_type_symbol
 _atom_site_label
 _atom_site_symmetry_multiplicity
 _atom_site_fract_x
 _atom_site_fract_y
 _atom_site_fract_z
 _atom_site_occupancy
  Ti  Ti0  4  0.15917900  0.25000000  0.40329000  1
  Cu  Cu1  4  0.16344600  0.25000000  0.99696100  1
  Cu  Cu2  4  0.16362100  0.25000000  0.20133200  1
  Cu  Cu3  4  0.16795900  0.25000000  0.79776000  1
  Cu  Cu4  4  0.17893500  0.25000000  0.60470100  1
